30
tetracene
C	4.889184	0.715267	0
C	4.889184	-0.715267	0
H	5.837094	-1.246479	0
H	5.837094	1.246479	0
C	3.71138	1.409387	0
C	3.71138	-1.409387	0
C	2.45084	0.725941	0
C	2.45084	-0.725941	0
H	3.70963	2.496931	0
H	3.70963	-2.496931	0
C	1.235427	1.406152	0
C	1.235427	-1.406152	0
C	0.000016	0.726124	0
C	0.000016	-0.726124	0
H	1.235305	2.494321	0
H	1.235305	-2.494321	0
C	-1.235526	1.406147	0
C	-1.235526	-1.406147	0
C	-2.450799	0.725948	0
C	-2.450799	-0.725948	0
H	-1.235335	2.494309	0
H	-1.235335	-2.494309	0
C	-3.711407	1.409399	0
C	-3.711407	-1.409399	0
C	-4.889136	0.715307	0
C	-4.889136	-0.715307	0
H	-3.70951	2.496929	0
H	-3.70951	-2.496929	0
H	-5.837057	1.246476	0
H	-5.837057	-1.246476	0
